FoamFile 
{ 
version 2.0; 
format ascii; 
class pointVectorField; 
object pointMotionU; 
} 
 // * * * * * * * * * * * * * * * * * // 
dimensions [0 1 -1 0 0 0 0]; 
internalField uniform (0 0 0);
boundaryField
{ 
bottom
{
type wall;
} 
outlet
{
type wall;
} 
walls
{
type wall;
} 
defaultFaces
{
type empty;
} 
} 
